<?xml version="1.0" encoding="UTF-8"?>

<!-- generated on 06/25/21 16:04:46 by Eclipse SUMO netconvert Version 1.8.0
<configuration xmlns:xsi="http://www.w3.org/2001/XMLSchema-instance" xsi:noNamespaceSchemaLocation="http://sumo.dlr.de/xsd/netconvertConfiguration.xsd">

    <input>
        <visum-file value="BezirkeUndKreuzungen.net"/>
    </input>

    <output>
        <output-file value="BezirkeUndKreuzungen.net.xml"/>
    </output>

    <report>
        <aggregate-warnings value="5"/>
    </report>

</configuration>
-->

<net version="1.6" junctionCornerDetail="5" limitTurnSpeed="5.50" xmlns:xsi="http://www.w3.org/2001/XMLSchema-instance" xsi:noNamespaceSchemaLocation="http://sumo.dlr.de/xsd/net_file.xsd">

    <location netOffset="0.00,5000.00" convBoundary="0.00,0.00,5000.00,5000.00" origBoundary="0.00,-5000.00,5000.00,0.00" projParameter="!"/>

    <edge id=":1_0" function="internal">
        <lane id=":1_0_0" index="0" allow="pedestrian passenger truck bicycle" speed="6.08" length="7.74" shape="3.20,5001.60 1.10,5001.30 -0.40,5000.40 -1.30,4998.90 -1.60,4996.80"/>
    </edge>
    <edge id=":1_1" function="internal">
        <lane id=":1_1_0" index="0" allow="pedestrian passenger truck bicycle" speed="3.90" length="2.58" shape="1.60,4996.80 1.70,4997.50 2.00,4998.00 2.50,4998.30 3.20,4998.40"/>
    </edge>
    <edge id=":10_0" function="internal">
        <lane id=":10_0_0" index="0" allow="pedestrian passenger truck bicycle" speed="6.51" length="9.03" shape="3998.40,4007.20 3998.05,4004.75 3997.00,4003.00 3995.25,4001.95 3992.80,4001.60"/>
    </edge>
    <edge id=":10_1" function="internal">
        <lane id=":10_1_0" index="0" allow="pedestrian passenger truck bicycle" speed="13.89" length="14.40" shape="3998.40,4007.20 3998.40,3992.80"/>
    </edge>
    <edge id=":10_2" function="internal">
        <lane id=":10_2_0" index="0" allow="pedestrian passenger truck bicycle" speed="8.00" length="5.93" shape="3998.40,4007.20 3998.95,4003.35 4000.00,4001.60"/>
    </edge>
    <edge id=":10_3" function="internal">
        <lane id=":10_3_0" index="0" allow="pedestrian passenger truck bicycle" speed="3.65" length="2.34" shape="3998.40,4007.20 3999.20,4006.00 4000.00,4005.60"/>
    </edge>
    <edge id=":10_16" function="internal">
        <lane id=":10_16_0" index="0" allow="pedestrian passenger truck bicycle" speed="8.00" length="8.26" shape="4000.00,4001.60 4000.60,4000.60 4003.35,3998.95 4007.20,3998.40"/>
    </edge>
    <edge id=":10_17" function="internal">
        <lane id=":10_17_0" index="0" allow="pedestrian passenger truck bicycle" speed="3.65" length="2.34" shape="4000.00,4005.60 4000.80,4006.00 4001.60,4007.20"/>
    </edge>
    <edge id=":10_4" function="internal">
        <lane id=":10_4_0" index="0" allow="pedestrian passenger truck bicycle" speed="6.51" length="9.03" shape="4007.20,4001.60 4004.75,4001.95 4003.00,4003.00 4001.95,4004.75 4001.60,4007.20"/>
    </edge>
    <edge id=":10_5" function="internal">
        <lane id=":10_5_0" index="0" allow="pedestrian passenger truck bicycle" speed="13.89" length="14.40" shape="4007.20,4001.60 3992.80,4001.60"/>
    </edge>
    <edge id=":10_6" function="internal">
        <lane id=":10_6_0" index="0" allow="pedestrian passenger truck bicycle" speed="8.00" length="14.19" shape="4007.20,4001.60 4003.35,4001.05 4000.60,3999.40 3998.95,3996.65 3998.40,3992.80"/>
    </edge>
    <edge id=":10_7" function="internal">
        <lane id=":10_7_0" index="0" allow="pedestrian passenger truck bicycle" speed="3.65" length="4.67" shape="4007.20,4001.60 4006.00,4000.80 4005.60,4000.00 4006.00,3999.20 4007.20,3998.40"/>
    </edge>
    <edge id=":10_8" function="internal">
        <lane id=":10_8_0" index="0" allow="pedestrian passenger truck bicycle" speed="6.51" length="9.03" shape="4001.60,3992.80 4001.95,3995.25 4003.00,3997.00 4004.75,3998.05 4007.20,3998.40"/>
    </edge>
    <edge id=":10_9" function="internal">
        <lane id=":10_9_0" index="0" allow="pedestrian passenger truck bicycle" speed="13.89" length="14.40" shape="4001.60,3992.80 4001.60,4007.20"/>
    </edge>
    <edge id=":10_10" function="internal">
        <lane id=":10_10_0" index="0" allow="pedestrian passenger truck bicycle" speed="8.00" length="5.93" shape="4001.60,3992.80 4001.05,3996.65 4000.00,3998.40"/>
    </edge>
    <edge id=":10_11" function="internal">
        <lane id=":10_11_0" index="0" allow="pedestrian passenger truck bicycle" speed="3.65" length="2.34" shape="4001.60,3992.80 4000.80,3994.00 4000.00,3994.40"/>
    </edge>
    <edge id=":10_18" function="internal">
        <lane id=":10_18_0" index="0" allow="pedestrian passenger truck bicycle" speed="8.00" length="8.26" shape="4000.00,3998.40 3999.40,3999.40 3996.65,4001.05 3992.80,4001.60"/>
    </edge>
    <edge id=":10_19" function="internal">
        <lane id=":10_19_0" index="0" allow="pedestrian passenger truck bicycle" speed="3.65" length="2.34" shape="4000.00,3994.40 3999.20,3994.00 3998.40,3992.80"/>
    </edge>
    <edge id=":10_12" function="internal">
        <lane id=":10_12_0" index="0" allow="pedestrian passenger truck bicycle" speed="6.51" length="9.03" shape="3992.80,3998.40 3995.25,3998.05 3997.00,3997.00 3998.05,3995.25 3998.40,3992.80"/>
    </edge>
    <edge id=":10_13" function="internal">
        <lane id=":10_13_0" index="0" allow="pedestrian passenger truck bicycle" speed="13.89" length="14.40" shape="3992.80,3998.40 4007.20,3998.40"/>
    </edge>
    <edge id=":10_14" function="internal">
        <lane id=":10_14_0" index="0" allow="pedestrian passenger truck bicycle" speed="8.00" length="14.19" shape="3992.80,3998.40 3996.65,3998.95 3999.40,4000.60 4001.05,4003.35 4001.60,4007.20"/>
    </edge>
    <edge id=":10_15" function="internal">
        <lane id=":10_15_0" index="0" allow="pedestrian passenger truck bicycle" speed="3.65" length="4.67" shape="3992.80,3998.40 3994.00,3999.20 3994.40,4000.00 3994.00,4000.80 3992.80,4001.60"/>
    </edge>
    <edge id=":11_0" function="internal">
        <lane id=":11_0_0" index="0" allow="pedestrian passenger truck bicycle" speed="13.89" length="14.40" shape="-1.60,3007.20 -1.60,2992.80"/>
    </edge>
    <edge id=":11_1" function="internal">
        <lane id=":11_1_0" index="0" allow="pedestrian passenger truck bicycle" speed="8.00" length="5.93" shape="-1.60,3007.20 -1.05,3003.35 -0.00,3001.60"/>
    </edge>
    <edge id=":11_2" function="internal">
        <lane id=":11_2_0" index="0" allow="pedestrian passenger truck bicycle" speed="3.65" length="2.34" shape="-1.60,3007.20 -0.80,3006.00 0.00,3005.60"/>
    </edge>
    <edge id=":11_9" function="internal">
        <lane id=":11_9_0" index="0" allow="pedestrian passenger truck bicycle" speed="8.00" length="8.26" shape="-0.00,3001.60 0.60,3000.60 3.35,2998.95 7.20,2998.40"/>
    </edge>
    <edge id=":11_10" function="internal">
        <lane id=":11_10_0" index="0" allow="pedestrian passenger truck bicycle" speed="3.65" length="2.34" shape="0.00,3005.60 0.80,3006.00 1.60,3007.20"/>
    </edge>
    <edge id=":11_3" function="internal">
        <lane id=":11_3_0" index="0" allow="pedestrian passenger truck bicycle" speed="6.51" length="9.03" shape="7.20,3001.60 4.75,3001.95 3.00,3003.00 1.95,3004.75 1.60,3007.20"/>
    </edge>
    <edge id=":11_4" function="internal">
        <lane id=":11_4_0" index="0" allow="pedestrian passenger truck bicycle" speed="8.00" length="14.19" shape="7.20,3001.60 3.35,3001.05 0.60,2999.40 -1.05,2996.65 -1.60,2992.80"/>
    </edge>
    <edge id=":11_5" function="internal">
        <lane id=":11_5_0" index="0" allow="pedestrian passenger truck bicycle" speed="3.65" length="4.67" shape="7.20,3001.60 6.00,3000.80 5.60,3000.00 6.00,2999.20 7.20,2998.40"/>
    </edge>
    <edge id=":11_6" function="internal">
        <lane id=":11_6_0" index="0" allow="pedestrian passenger truck bicycle" speed="6.51" length="9.03" shape="1.60,2992.80 1.95,2995.25 3.00,2997.00 4.75,2998.05 7.20,2998.40"/>
    </edge>
    <edge id=":11_7" function="internal">
        <lane id=":11_7_0" index="0" allow="pedestrian passenger truck bicycle" speed="13.89" length="14.40" shape="1.60,2992.80 1.60,3007.20"/>
    </edge>
    <edge id=":11_8" function="internal">
        <lane id=":11_8_0" index="0" allow="pedestrian passenger truck bicycle" speed="3.65" length="2.34" shape="1.60,2992.80 0.80,2994.00 0.00,2994.40"/>
    </edge>
    <edge id=":11_11" function="internal">
        <lane id=":11_11_0" index="0" allow="pedestrian passenger truck bicycle" speed="3.65" length="2.34" shape="0.00,2994.40 -0.80,2994.00 -1.60,2992.80"/>
    </edge>
    <edge id=":12_0" function="internal">
        <lane id=":12_0_0" index="0" allow="pedestrian passenger truck bicycle" speed="6.51" length="9.03" shape="998.40,3007.20 998.05,3004.75 997.00,3003.00 995.25,3001.95 992.80,3001.60"/>
    </edge>
    <edge id=":12_1" function="internal">
        <lane id=":12_1_0" index="0" allow="pedestrian passenger truck bicycle" speed="13.89" length="14.40" shape="998.40,3007.20 998.40,2992.80"/>
    </edge>
    <edge id=":12_2" function="internal">
        <lane id=":12_2_0" index="0" allow="pedestrian passenger truck bicycle" speed="8.00" length="5.93" shape="998.40,3007.20 998.95,3003.35 1000.00,3001.60"/>
    </edge>
    <edge id=":12_3" function="internal">
        <lane id=":12_3_0" index="0" allow="pedestrian passenger truck bicycle" speed="3.65" length="2.34" shape="998.40,3007.20 999.20,3006.00 1000.00,3005.60"/>
    </edge>
    <edge id=":12_16" function="internal">
        <lane id=":12_16_0" index="0" allow="pedestrian passenger truck bicycle" speed="8.00" length="8.26" shape="1000.00,3001.60 1000.60,3000.60 1003.35,2998.95 1007.20,2998.40"/>
    </edge>
    <edge id=":12_17" function="internal">
        <lane id=":12_17_0" index="0" allow="pedestrian passenger truck bicycle" speed="3.65" length="2.34" shape="1000.00,3005.60 1000.80,3006.00 1001.60,3007.20"/>
    </edge>
    <edge id=":12_4" function="internal">
        <lane id=":12_4_0" index="0" allow="pedestrian passenger truck bicycle" speed="6.51" length="9.03" shape="1007.20,3001.60 1004.75,3001.95 1003.00,3003.00 1001.95,3004.75 1001.60,3007.20"/>
    </edge>
    <edge id=":12_5" function="internal">
        <lane id=":12_5_0" index="0" allow="pedestrian passenger truck bicycle" speed="13.89" length="14.40" shape="1007.20,3001.60 992.80,3001.60"/>
    </edge>
    <edge id=":12_6" function="internal">
        <lane id=":12_6_0" index="0" allow="pedestrian passenger truck bicycle" speed="8.00" length="14.19" shape="1007.20,3001.60 1003.35,3001.05 1000.60,2999.40 998.95,2996.65 998.40,2992.80"/>
    </edge>
    <edge id=":12_7" function="internal">
        <lane id=":12_7_0" index="0" allow="pedestrian passenger truck bicycle" speed="3.65" length="4.67" shape="1007.20,3001.60 1006.00,3000.80 1005.60,3000.00 1006.00,2999.20 1007.20,2998.40"/>
    </edge>
    <edge id=":12_8" function="internal">
        <lane id=":12_8_0" index="0" allow="pedestrian passenger truck bicycle" speed="6.51" length="9.03" shape="1001.60,2992.80 1001.95,2995.25 1003.00,2997.00 1004.75,2998.05 1007.20,2998.40"/>
    </edge>
    <edge id=":12_9" function="internal">
        <lane id=":12_9_0" index="0" allow="pedestrian passenger truck bicycle" speed="13.89" length="14.40" shape="1001.60,2992.80 1001.60,3007.20"/>
    </edge>
    <edge id=":12_10" function="internal">
        <lane id=":12_10_0" index="0" allow="pedestrian passenger truck bicycle" speed="8.00" length="5.93" shape="1001.60,2992.80 1001.05,2996.65 1000.00,2998.40"/>
    </edge>
    <edge id=":12_11" function="internal">
        <lane id=":12_11_0" index="0" allow="pedestrian passenger truck bicycle" speed="3.65" length="2.34" shape="1001.60,2992.80 1000.80,2994.00 1000.00,2994.40"/>
    </edge>
    <edge id=":12_18" function="internal">
        <lane id=":12_18_0" index="0" allow="pedestrian passenger truck bicycle" speed="8.00" length="8.26" shape="1000.00,2998.40 999.40,2999.40 996.65,3001.05 992.80,3001.60"/>
    </edge>
    <edge id=":12_19" function="internal">
        <lane id=":12_19_0" index="0" allow="pedestrian passenger truck bicycle" speed="3.65" length="2.34" shape="1000.00,2994.40 999.20,2994.00 998.40,2992.80"/>
    </edge>
    <edge id=":12_12" function="internal">
        <lane id=":12_12_0" index="0" allow="pedestrian passenger truck bicycle" speed="6.51" length="9.03" shape="992.80,2998.40 995.25,2998.05 997.00,2997.00 998.05,2995.25 998.40,2992.80"/>
    </edge>
    <edge id=":12_13" function="internal">
        <lane id=":12_13_0" index="0" allow="pedestrian passenger truck bicycle" speed="13.89" length="14.40" shape="992.80,2998.40 1007.20,2998.40"/>
    </edge>
    <edge id=":12_14" function="internal">
        <lane id=":12_14_0" index="0" allow="pedestrian passenger truck bicycle" speed="8.00" length="14.19" shape="992.80,2998.40 996.65,2998.95 999.40,3000.60 1001.05,3003.35 1001.60,3007.20"/>
    </edge>
    <edge id=":12_15" function="internal">
        <lane id=":12_15_0" index="0" allow="pedestrian passenger truck bicycle" speed="3.65" length="4.67" shape="992.80,2998.40 994.00,2999.20 994.40,3000.00 994.00,3000.80 992.80,3001.60"/>
    </edge>
    <edge id=":13_0" function="internal">
        <lane id=":13_0_0" index="0" allow="pedestrian passenger truck bicycle" speed="6.51" length="9.03" shape="1998.40,3007.20 1998.05,3004.75 1997.00,3003.00 1995.25,3001.95 1992.80,3001.60"/>
    </edge>
    <edge id=":13_1" function="internal">
        <lane id=":13_1_0" index="0" allow="pedestrian passenger truck bicycle" speed="13.89" length="14.40" shape="1998.40,3007.20 1998.40,2992.80"/>
    </edge>
    <edge id=":13_2" function="internal">
        <lane id=":13_2_0" index="0" allow="pedestrian passenger truck bicycle" speed="8.00" length="5.93" shape="1998.40,3007.20 1998.95,3003.35 2000.00,3001.60"/>
    </edge>
    <edge id=":13_3" function="internal">
        <lane id=":13_3_0" index="0" allow="pedestrian passenger truck bicycle" speed="3.65" length="2.34" shape="1998.40,3007.20 1999.20,3006.00 2000.00,3005.60"/>
    </edge>
    <edge id=":13_16" function="internal">
        <lane id=":13_16_0" index="0" allow="pedestrian passenger truck bicycle" speed="8.00" length="8.26" shape="2000.00,3001.60 2000.60,3000.60 2003.35,2998.95 2007.20,2998.40"/>
    </edge>
    <edge id=":13_17" function="internal">
        <lane id=":13_17_0" index="0" allow="pedestrian passenger truck bicycle" speed="3.65" length="2.34" shape="2000.00,3005.60 2000.80,3006.00 2001.60,3007.20"/>
    </edge>
    <edge id=":13_4" function="internal">
        <lane id=":13_4_0" index="0" allow="pedestrian passenger truck bicycle" speed="6.51" length="9.03" shape="2007.20,3001.60 2004.75,3001.95 2003.00,3003.00 2001.95,3004.75 2001.60,3007.20"/>
    </edge>
    <edge id=":13_5" function="internal">
        <lane id=":13_5_0" index="0" allow="pedestrian passenger truck bicycle" speed="13.89" length="14.40" shape="2007.20,3001.60 1992.80,3001.60"/>
    </edge>
    <edge id=":13_6" function="internal">
        <lane id=":13_6_0" index="0" allow="pedestrian passenger truck bicycle" speed="8.00" length="14.19" shape="2007.20,3001.60 2003.35,3001.05 2000.60,2999.40 1998.95,2996.65 1998.40,2992.80"/>
    </edge>
    <edge id=":13_7" function="internal">
        <lane id=":13_7_0" index="0" allow="pedestrian passenger truck bicycle" speed="3.65" length="4.67" shape="2007.20,3001.60 2006.00,3000.80 2005.60,3000.00 2006.00,2999.20 2007.20,2998.40"/>
    </edge>
    <edge id=":13_8" function="internal">
        <lane id=":13_8_0" index="0" allow="pedestrian passenger truck bicycle" speed="6.51" length="9.03" shape="2001.60,2992.80 2001.95,2995.25 2003.00,2997.00 2004.75,2998.05 2007.20,2998.40"/>
    </edge>
    <edge id=":13_9" function="internal">
        <lane id=":13_9_0" index="0" allow="pedestrian passenger truck bicycle" speed="13.89" length="14.40" shape="2001.60,2992.80 2001.60,3007.20"/>
    </edge>
    <edge id=":13_10" function="internal">
        <lane id=":13_10_0" index="0" allow="pedestrian passenger truck bicycle" speed="8.00" length="5.93" shape="2001.60,2992.80 2001.05,2996.65 2000.00,2998.40"/>
    </edge>
    <edge id=":13_11" function="internal">
        <lane id=":13_11_0" index="0" allow="pedestrian passenger truck bicycle" speed="3.65" length="2.34" shape="2001.60,2992.80 2000.80,2994.00 2000.00,2994.40"/>
    </edge>
    <edge id=":13_18" function="internal">
        <lane id=":13_18_0" index="0" allow="pedestrian passenger truck bicycle" speed="8.00" length="8.26" shape="2000.00,2998.40 1999.40,2999.40 1996.65,3001.05 1992.80,3001.60"/>
    </edge>
    <edge id=":13_19" function="internal">
        <lane id=":13_19_0" index="0" allow="pedestrian passenger truck bicycle" speed="3.65" length="2.34" shape="2000.00,2994.40 1999.20,2994.00 1998.40,2992.80"/>
    </edge>
    <edge id=":13_12" function="internal">
        <lane id=":13_12_0" index="0" allow="pedestrian passenger truck bicycle" speed="6.51" length="9.03" shape="1992.80,2998.40 1995.25,2998.05 1997.00,2997.00 1998.05,2995.25 1998.40,2992.80"/>
    </edge>
    <edge id=":13_13" function="internal">
        <lane id=":13_13_0" index="0" allow="pedestrian passenger truck bicycle" speed="13.89" length="14.40" shape="1992.80,2998.40 2007.20,2998.40"/>
    </edge>
    <edge id=":13_14" function="internal">
        <lane id=":13_14_0" index="0" allow="pedestrian passenger truck bicycle" speed="8.00" length="14.19" shape="1992.80,2998.40 1996.65,2998.95 1999.40,3000.60 2001.05,3003.35 2001.60,3007.20"/>
    </edge>
    <edge id=":13_15" function="internal">
        <lane id=":13_15_0" index="0" allow="pedestrian passenger truck bicycle" speed="3.65" length="4.67" shape="1992.80,2998.40 1994.00,2999.20 1994.40,3000.00 1994.00,3000.80 1992.80,3001.60"/>
    </edge>
    <edge id=":14_0" function="internal">
        <lane id=":14_0_0" index="0" allow="pedestrian passenger truck bicycle" speed="6.51" length="9.03" shape="2998.40,3007.20 2998.05,3004.75 2997.00,3003.00 2995.25,3001.95 2992.80,3001.60"/>
    </edge>
    <edge id=":14_1" function="internal">
        <lane id=":14_1_0" index="0" allow="pedestrian passenger truck bicycle" speed="13.89" length="14.40" shape="2998.40,3007.20 2998.40,2992.80"/>
    </edge>
    <edge id=":14_2" function="internal">
        <lane id=":14_2_0" index="0" allow="pedestrian passenger truck bicycle" speed="8.00" length="5.93" shape="2998.40,3007.20 2998.95,3003.35 3000.00,3001.60"/>
    </edge>
    <edge id=":14_3" function="internal">
        <lane id=":14_3_0" index="0" allow="pedestrian passenger truck bicycle" speed="3.65" length="2.34" shape="2998.40,3007.20 2999.20,3006.00 3000.00,3005.60"/>
    </edge>
    <edge id=":14_16" function="internal">
        <lane id=":14_16_0" index="0" allow="pedestrian passenger truck bicycle" speed="8.00" length="8.26" shape="3000.00,3001.60 3000.60,3000.60 3003.35,2998.95 3007.20,2998.40"/>
    </edge>
    <edge id=":14_17" function="internal">
        <lane id=":14_17_0" index="0" allow="pedestrian passenger truck bicycle" speed="3.65" length="2.34" shape="3000.00,3005.60 3000.80,3006.00 3001.60,3007.20"/>
    </edge>
    <edge id=":14_4" function="internal">
        <lane id=":14_4_0" index="0" allow="pedestrian passenger truck bicycle" speed="6.51" length="9.03" shape="3007.20,3001.60 3004.75,3001.95 3003.00,3003.00 3001.95,3004.75 3001.60,3007.20"/>
    </edge>
    <edge id=":14_5" function="internal">
        <lane id=":14_5_0" index="0" allow="pedestrian passenger truck bicycle" speed="13.89" length="14.40" shape="3007.20,3001.60 2992.80,3001.60"/>
    </edge>
    <edge id=":14_6" function="internal">
        <lane id=":14_6_0" index="0" allow="pedestrian passenger truck bicycle" speed="8.00" length="14.19" shape="3007.20,3001.60 3003.35,3001.05 3000.60,2999.40 2998.95,2996.65 2998.40,2992.80"/>
    </edge>
    <edge id=":14_7" function="internal">
        <lane id=":14_7_0" index="0" allow="pedestrian passenger truck bicycle" speed="3.65" length="4.67" shape="3007.20,3001.60 3006.00,3000.80 3005.60,3000.00 3006.00,2999.20 3007.20,2998.40"/>
    </edge>
    <edge id=":14_8" function="internal">
        <lane id=":14_8_0" index="0" allow="pedestrian passenger truck bicycle" speed="6.51" length="9.03" shape="3001.60,2992.80 3001.95,2995.25 3003.00,2997.00 3004.75,2998.05 3007.20,2998.40"/>
    </edge>
    <edge id=":14_9" function="internal">
        <lane id=":14_9_0" index="0" allow="pedestrian passenger truck bicycle" speed="13.89" length="14.40" shape="3001.60,2992.80 3001.60,3007.20"/>
    </edge>
    <edge id=":14_10" function="internal">
        <lane id=":14_10_0" index="0" allow="pedestrian passenger truck bicycle" speed="8.00" length="5.93" shape="3001.60,2992.80 3001.05,2996.65 3000.00,2998.40"/>
    </edge>
    <edge id=":14_11" function="internal">
        <lane id=":14_11_0" index="0" allow="pedestrian passenger truck bicycle" speed="3.65" length="2.34" shape="3001.60,2992.80 3000.80,2994.00 3000.00,2994.40"/>
    </edge>
    <edge id=":14_18" function="internal">
        <lane id=":14_18_0" index="0" allow="pedestrian passenger truck bicycle" speed="8.00" length="8.26" shape="3000.00,2998.40 2999.40,2999.40 2996.65,3001.05 2992.80,3001.60"/>
    </edge>
    <edge id=":14_19" function="internal">
        <lane id=":14_19_0" index="0" allow="pedestrian passenger truck bicycle" speed="3.65" length="2.34" shape="3000.00,2994.40 2999.20,2994.00 2998.40,2992.80"/>
    </edge>
    <edge id=":14_12" function="internal">
        <lane id=":14_12_0" index="0" allow="pedestrian passenger truck bicycle" speed="6.51" length="9.03" shape="2992.80,2998.40 2995.25,2998.05 2997.00,2997.00 2998.05,2995.25 2998.40,2992.80"/>
    </edge>
    <edge id=":14_13" function="internal">
        <lane id=":14_13_0" index="0" allow="pedestrian passenger truck bicycle" speed="13.89" length="14.40" shape="2992.80,2998.40 3007.20,2998.40"/>
    </edge>
    <edge id=":14_14" function="internal">
        <lane id=":14_14_0" index="0" allow="pedestrian passenger truck bicycle" speed="8.00" length="14.19" shape="2992.80,2998.40 2996.65,2998.95 2999.40,3000.60 3001.05,3003.35 3001.60,3007.20"/>
    </edge>
    <edge id=":14_15" function="internal">
        <lane id=":14_15_0" index="0" allow="pedestrian passenger truck bicycle" speed="3.65" length="4.67" shape="2992.80,2998.40 2994.00,2999.20 2994.40,3000.00 2994.00,3000.80 2992.80,3001.60"/>
    </edge>
    <edge id=":15_0" function="internal">
        <lane id=":15_0_0" index="0" allow="pedestrian passenger truck bicycle" speed="6.51" length="9.03" shape="3998.40,3007.20 3998.05,3004.75 3997.00,3003.00 3995.25,3001.95 3992.80,3001.60"/>
    </edge>
    <edge id=":15_1" function="internal">
        <lane id=":15_1_0" index="0" allow="pedestrian passenger truck bicycle" speed="13.89" length="14.40" shape="3998.40,3007.20 3998.40,2992.80"/>
    </edge>
    <edge id=":15_2" function="internal">
        <lane id=":15_2_0" index="0" allow="pedestrian passenger truck bicycle" speed="8.00" length="5.93" shape="3998.40,3007.20 3998.95,3003.35 4000.00,3001.60"/>
    </edge>
    <edge id=":15_3" function="internal">
        <lane id=":15_3_0" index="0" allow="pedestrian passenger truck bicycle" speed="3.65" length="2.34" shape="3998.40,3007.20 3999.20,3006.00 4000.00,3005.60"/>
    </edge>
    <edge id=":15_16" function="internal">
        <lane id=":15_16_0" index="0" allow="pedestrian passenger truck bicycle" speed="8.00" length="8.26" shape="4000.00,3001.60 4000.60,3000.60 4003.35,2998.95 4007.20,2998.40"/>
    </edge>
    <edge id=":15_17" function="internal">
        <lane id=":15_17_0" index="0" allow="pedestrian passenger truck bicycle" speed="3.65" length="2.34" shape="4000.00,3005.60 4000.80,3006.00 4001.60,3007.20"/>
    </edge>
    <edge id=":15_4" function="internal">
        <lane id=":15_4_0" index="0" allow="pedestrian passenger truck bicycle" speed="6.51" length="9.03" shape="4007.20,3001.60 4004.75,3001.95 4003.00,3003.00 4001.95,3004.75 4001.60,3007.20"/>
    </edge>
    <edge id=":15_5" function="internal">
        <lane id=":15_5_0" index="0" allow="pedestrian passenger truck bicycle" speed="13.89" length="14.40" shape="4007.20,3001.60 3992.80,3001.60"/>
    </edge>
    <edge id=":15_6" function="internal">
        <lane id=":15_6_0" index="0" allow="pedestrian passenger truck bicycle" speed="8.00" length="14.19" shape="4007.20,3001.60 4003.35,3001.05 4000.60,2999.40 3998.95,2996.65 3998.40,2992.80"/>
    </edge>
    <edge id=":15_7" function="internal">
        <lane id=":15_7_0" index="0" allow="pedestrian passenger truck bicycle" speed="3.65" length="4.67" shape="4007.20,3001.60 4006.00,3000.80 4005.60,3000.00 4006.00,2999.20 4007.20,2998.40"/>
    </edge>
    <edge id=":15_8" function="internal">
        <lane id=":15_8_0" index="0" allow="pedestrian passenger truck bicycle" speed="6.51" length="9.03" shape="4001.60,2992.80 4001.95,2995.25 4003.00,2997.00 4004.75,2998.05 4007.20,2998.40"/>
    </edge>
    <edge id=":15_9" function="internal">
        <lane id=":15_9_0" index="0" allow="pedestrian passenger truck bicycle" speed="13.89" length="14.40" shape="4001.60,2992.80 4001.60,3007.20"/>
    </edge>
    <edge id=":15_10" function="internal">
        <lane id=":15_10_0" index="0" allow="pedestrian passenger truck bicycle" speed="8.00" length="5.93" shape="4001.60,2992.80 4001.05,2996.65 4000.00,2998.40"/>
    </edge>
    <edge id=":15_11" function="internal">
        <lane id=":15_11_0" index="0" allow="pedestrian passenger truck bicycle" speed="3.65" length="2.34" shape="4001.60,2992.80 4000.80,2994.00 4000.00,2994.40"/>
    </edge>
    <edge id=":15_18" function="internal">
        <lane id=":15_18_0" index="0" allow="pedestrian passenger truck bicycle" speed="8.00" length="8.26" shape="4000.00,2998.40 3999.40,2999.40 3996.65,3001.05 3992.80,3001.60"/>
    </edge>
    <edge id=":15_19" function="internal">
        <lane id=":15_19_0" index="0" allow="pedestrian passenger truck bicycle" speed="3.65" length="2.34" shape="4000.00,2994.40 3999.20,2994.00 3998.40,2992.80"/>
    </edge>
    <edge id=":15_12" function="internal">
        <lane id=":15_12_0" index="0" allow="pedestrian passenger truck bicycle" speed="6.51" length="9.03" shape="3992.80,2998.40 3995.25,2998.05 3997.00,2997.00 3998.05,2995.25 3998.40,2992.80"/>
    </edge>
    <edge id=":15_13" function="internal">
        <lane id=":15_13_0" index="0" allow="pedestrian passenger truck bicycle" speed="13.89" length="14.40" shape="3992.80,2998.40 4007.20,2998.40"/>
    </edge>
    <edge id=":15_14" function="internal">
        <lane id=":15_14_0" index="0" allow="pedestrian passenger truck bicycle" speed="8.00" length="14.19" shape="3992.80,2998.40 3996.65,2998.95 3999.40,3000.60 4001.05,3003.35 4001.60,3007.20"/>
    </edge>
    <edge id=":15_15" function="internal">
        <lane id=":15_15_0" index="0" allow="pedestrian passenger truck bicycle" speed="3.65" length="4.67" shape="3992.80,2998.40 3994.00,2999.20 3994.40,3000.00 3994.00,3000.80 3992.80,3001.60"/>
    </edge>
    <edge id=":16_0" function="internal">
        <lane id=":16_0_0" index="0" allow="pedestrian passenger truck bicycle" speed="13.89" length="14.40" shape="-1.60,2007.20 -1.60,1992.80"/>
    </edge>
    <edge id=":16_1" function="internal">
        <lane id=":16_1_0" index="0" allow="pedestrian passenger truck bicycle" speed="8.00" length="5.93" shape="-1.60,2007.20 -1.05,2003.35 0.00,2001.60"/>
    </edge>
    <edge id=":16_2" function="internal">
        <lane id=":16_2_0" index="0" allow="pedestrian passenger truck bicycle" speed="3.65" length="2.34" shape="-1.60,2007.20 -0.80,2006.00 0.00,2005.60"/>
    </edge>
    <edge id=":16_9" function="internal">
        <lane id=":16_9_0" index="0" allow="pedestrian passenger truck bicycle" speed="8.00" length="8.26" shape="0.00,2001.60 0.60,2000.60 3.35,1998.95 7.20,1998.40"/>
    </edge>
    <edge id=":16_10" function="internal">
        <lane id=":16_10_0" index="0" allow="pedestrian passenger truck bicycle" speed="3.65" length="2.34" shape="0.00,2005.60 0.80,2006.00 1.60,2007.20"/>
    </edge>
    <edge id=":16_3" function="internal">
        <lane id=":16_3_0" index="0" allow="pedestrian passenger truck bicycle" speed="6.51" length="9.03" shape="7.20,2001.60 4.75,2001.95 3.00,2003.00 1.95,2004.75 1.60,2007.20"/>
    </edge>
    <edge id=":16_4" function="internal">
        <lane id=":16_4_0" index="0" allow="pedestrian passenger truck bicycle" speed="8.00" length="14.19" shape="7.20,2001.60 3.35,2001.05 0.60,1999.40 -1.05,1996.65 -1.60,1992.80"/>
    </edge>
    <edge id=":16_5" function="internal">
        <lane id=":16_5_0" index="0" allow="pedestrian passenger truck bicycle" speed="3.65" length="4.67" shape="7.20,2001.60 6.00,2000.80 5.60,2000.00 6.00,1999.20 7.20,1998.40"/>
    </edge>
    <edge id=":16_6" function="internal">
        <lane id=":16_6_0" index="0" allow="pedestrian passenger truck bicycle" speed="6.51" length="9.03" shape="1.60,1992.80 1.95,1995.25 3.00,1997.00 4.75,1998.05 7.20,1998.40"/>
    </edge>
    <edge id=":16_7" function="internal">
        <lane id=":16_7_0" index="0" allow="pedestrian passenger truck bicycle" speed="13.89" length="14.40" shape="1.60,1992.80 1.60,2007.20"/>
    </edge>
    <edge id=":16_8" function="internal">
        <lane id=":16_8_0" index="0" allow="pedestrian passenger truck bicycle" speed="3.65" length="2.34" shape="1.60,1992.80 0.80,1994.00 0.00,1994.40"/>
    </edge>
    <edge id=":16_11" function="internal">
        <lane id=":16_11_0" index="0" allow="pedestrian passenger truck bicycle" speed="3.65" length="2.34" shape="0.00,1994.40 -0.80,1994.00 -1.60,1992.80"/>
    </edge>
    <edge id=":17_0" function="internal">
        <lane id=":17_0_0" index="0" allow="pedestrian passenger truck bicycle" speed="6.51" length="9.03" shape="998.40,2007.20 998.05,2004.75 997.00,2003.00 995.25,2001.95 992.80,2001.60"/>
    </edge>