<?xml version="1.0" encoding="UTF-8"?>

<additional xmlns:xsi="http://www.w3.org/2001/XMLSchema-instance" xsi:noNamespaceSchemaLocation="http://sumo.dlr.de/xsd/additional_file.xsd">
    <e1Detector id="e1Detector_0" lane="12_0" pos="-1" freq="1.00" file="out.xml"/>
    <e1Detector id="e1Detector_1" lane="-14_0" pos="-1" freq="1.00" file="out.xml"/>
    <e1Detector id="e1Detector_2" lane="16_0" pos="-1" freq="1.00" file="out.xml"/>
    <e1Detector id="e1Detector_3" lane="32_0" pos="-1" freq="1.00" file="out.xml"/>
    <e1Detector id="e1Detector_4" lane="-34_0" pos="-1" freq="1.00" file="out.xml"/>
    <e1Detector id="e1Detector_5" lane="36_0" pos="-1" freq="1.00" file="out.xml"/>
    <e1Detector id="e1Detector_6" lane="-64_0" pos="-1" freq="1.00" file="out.xml"/>
    <e1Detector id="e1Detector_7" lane="-66_0" pos="-1" freq="1.00" file="out.xml"/>
</additional>
