<?xml version="1.0" encoding="UTF-8"?>

<!-- generated on 07/04/21 13:34:16 by Eclipse SUMO netconvert Version 1.8.0
<configuration xmlns:xsi="http://www.w3.org/2001/XMLSchema-instance" xsi:noNamespaceSchemaLocation="http://sumo.dlr.de/xsd/netconvertConfiguration.xsd">

    <input>
        <visum-file value="Streckensperrung.net"/>
    </input>

    <output>
        <output-file value="Streckensperrung.net.xml"/>
    </output>

    <report>
        <aggregate-warnings value="5"/>
    </report>

</configuration>
-->

<net version="1.6" junctionCornerDetail="5" limitTurnSpeed="5.50" xmlns:xsi="http://www.w3.org/2001/XMLSchema-instance" xsi:noNamespaceSchemaLocation="http://sumo.dlr.de/xsd/net_file.xsd">

    <location netOffset="0.00,100.00" convBoundary="0.00,0.00,300.00,200.00" origBoundary="0.00,-100.00,300.00,100.00" projParameter="!"/>

    <edge id=":1_0" function="internal">
        <lane id=":1_0_0" index="0" allow="pedestrian passenger bicycle" speed="3.65" length="4.67" shape="0.00,101.60 -1.20,100.80 -1.60,100.00 -1.20,99.20 0.00,98.40"/>
    </edge>
    <edge id=":2_0" function="internal">
        <lane id=":2_0_0" index="0" allow="pedestrian passenger bicycle" speed="6.51" length="9.03" shape="98.40,107.20 98.05,104.75 97.00,103.00 95.25,101.95 92.80,101.60"/>
    </edge>
    <edge id=":2_1" function="internal">
        <lane id=":2_1_0" index="0" allow="pedestrian passenger bicycle" speed="13.89" length="14.40" shape="98.40,107.20 98.40,92.80"/>
    </edge>
    <edge id=":2_2" function="internal">
        <lane id=":2_2_0" index="0" allow="pedestrian passenger bicycle" speed="8.00" length="5.93" shape="98.40,107.20 98.95,103.35 100.00,101.60"/>
    </edge>
    <edge id=":2_3" function="internal">
        <lane id=":2_3_0" index="0" allow="pedestrian passenger bicycle" speed="3.65" length="2.34" shape="98.40,107.20 99.20,106.00 100.00,105.60"/>
    </edge>
    <edge id=":2_16" function="internal">
        <lane id=":2_16_0" index="0" allow="pedestrian passenger bicycle" speed="8.00" length="8.26" shape="100.00,101.60 100.60,100.60 103.35,98.95 107.20,98.40"/>
    </edge>
    <edge id=":2_17" function="internal">
        <lane id=":2_17_0" index="0" allow="pedestrian passenger bicycle" speed="3.65" length="2.34" shape="100.00,105.60 100.80,106.00 101.60,107.20"/>
    </edge>
    <edge id=":2_4" function="internal">
        <lane id=":2_4_0" index="0" allow="pedestrian passenger bicycle" speed="6.51" length="9.03" shape="107.20,101.60 104.75,101.95 103.00,103.00 101.95,104.75 101.60,107.20"/>
    </edge>
    <edge id=":2_5" function="internal">
        <lane id=":2_5_0" index="0" allow="pedestrian passenger bicycle" speed="13.89" length="14.40" shape="107.20,101.60 92.80,101.60"/>
    </edge>
    <edge id=":2_6" function="internal">
        <lane id=":2_6_0" index="0" allow="pedestrian passenger bicycle" speed="8.00" length="14.19" shape="107.20,101.60 103.35,101.05 100.60,99.40 98.95,96.65 98.40,92.80"/>
    </edge>
    <edge id=":2_7" function="internal">
        <lane id=":2_7_0" index="0" allow="pedestrian passenger bicycle" speed="3.65" length="4.67" shape="107.20,101.60 106.00,100.80 105.60,100.00 106.00,99.20 107.20,98.40"/>
    </edge>
    <edge id=":2_8" function="internal">
        <lane id=":2_8_0" index="0" allow="pedestrian passenger bicycle" speed="6.51" length="9.03" shape="101.60,92.80 101.95,95.25 103.00,97.00 104.75,98.05 107.20,98.40"/>
    </edge>
    <edge id=":2_9" function="internal">
        <lane id=":2_9_0" index="0" allow="pedestrian passenger bicycle" speed="13.89" length="14.40" shape="101.60,92.80 101.60,107.20"/>
    </edge>
    <edge id=":2_10" function="internal">
        <lane id=":2_10_0" index="0" allow="pedestrian passenger bicycle" speed="8.00" length="5.93" shape="101.60,92.80 101.05,96.65 100.00,98.40"/>
    </edge>
    <edge id=":2_11" function="internal">
        <lane id=":2_11_0" index="0" allow="pedestrian passenger bicycle" speed="3.65" length="2.34" shape="101.60,92.80 100.80,94.00 100.00,94.40"/>
    </edge>
    <edge id=":2_18" function="internal">
        <lane id=":2_18_0" index="0" allow="pedestrian passenger bicycle" speed="8.00" length="8.26" shape="100.00,98.40 99.40,99.40 96.65,101.05 92.80,101.60"/>
    </edge>
    <edge id=":2_19" function="internal">
        <lane id=":2_19_0" index="0" allow="pedestrian passenger bicycle" speed="3.65" length="2.34" shape="100.00,94.40 99.20,94.00 98.40,92.80"/>
    </edge>
    <edge id=":2_12" function="internal">
        <lane id=":2_12_0" index="0" allow="pedestrian passenger bicycle" speed="6.51" length="9.03" shape="92.80,98.40 95.25,98.05 97.00,97.00 98.05,95.25 98.40,92.80"/>
    </edge>
    <edge id=":2_13" function="internal">
        <lane id=":2_13_0" index="0" allow="pedestrian passenger bicycle" speed="13.89" length="14.40" shape="92.80,98.40 107.20,98.40"/>
    </edge>
    <edge id=":2_14" function="internal">
        <lane id=":2_14_0" index="0" allow="pedestrian passenger bicycle" speed="8.00" length="14.19" shape="92.80,98.40 96.65,98.95 99.40,100.60 101.05,103.35 101.60,107.20"/>
    </edge>
    <edge id=":2_15" function="internal">
        <lane id=":2_15_0" index="0" allow="pedestrian passenger bicycle" speed="3.65" length="4.67" shape="92.80,98.40 94.00,99.20 94.40,100.00 94.00,100.80 92.80,101.60"/>
    </edge>
    <edge id=":3_0" function="internal">
        <lane id=":3_0_0" index="0" allow="pedestrian passenger bicycle" speed="6.51" length="9.03" shape="198.40,107.20 198.05,104.75 197.00,103.00 195.25,101.95 192.80,101.60"/>
    </edge>
    <edge id=":3_1" function="internal">
        <lane id=":3_1_0" index="0" allow="pedestrian passenger bicycle" speed="8.00" length="14.19" shape="198.40,107.20 198.95,103.35 200.60,100.60 203.35,98.95 207.20,98.40"/>
    </edge>
    <edge id=":3_2" function="internal">
        <lane id=":3_2_0" index="0" allow="pedestrian passenger bicycle" speed="3.65" length="4.67" shape="198.40,107.20 199.20,106.00 200.00,105.60 200.80,106.00 201.60,107.20"/>
    </edge>
    <edge id=":3_3" function="internal">
        <lane id=":3_3_0" index="0" allow="pedestrian passenger bicycle" speed="6.51" length="9.03" shape="207.20,101.60 204.75,101.95 203.00,103.00 201.95,104.75 201.60,107.20"/>
    </edge>
    <edge id=":3_4" function="internal">
        <lane id=":3_4_0" index="0" allow="pedestrian passenger bicycle" speed="13.89" length="14.40" shape="207.20,101.60 192.80,101.60"/>
    </edge>
    <edge id=":3_5" function="internal">
        <lane id=":3_5_0" index="0" allow="pedestrian passenger bicycle" speed="3.65" length="2.34" shape="207.20,101.60 206.00,100.80 205.60,100.00"/>
    </edge>
    <edge id=":3_9" function="internal">
        <lane id=":3_9_0" index="0" allow="pedestrian passenger bicycle" speed="3.65" length="2.34" shape="205.60,100.00 206.00,99.20 207.20,98.40"/>
    </edge>
    <edge id=":3_6" function="internal">
        <lane id=":3_6_0" index="0" allow="pedestrian passenger bicycle" speed="13.89" length="14.40" shape="192.80,98.40 207.20,98.40"/>
    </edge>
    <edge id=":3_7" function="internal">
        <lane id=":3_7_0" index="0" allow="pedestrian passenger bicycle" speed="8.00" length="5.93" shape="192.80,98.40 196.65,98.95 198.40,100.00"/>
    </edge>
    <edge id=":3_8" function="internal">
        <lane id=":3_8_0" index="0" allow="pedestrian passenger bicycle" speed="3.65" length="2.34" shape="192.80,98.40 194.00,99.20 194.40,100.00"/>
    </edge>
    <edge id=":3_10" function="internal">
        <lane id=":3_10_0" index="0" allow="pedestrian passenger bicycle" speed="8.00" length="8.26" shape="198.40,100.00 199.40,100.60 201.05,103.35 201.60,107.20"/>
    </edge>
    <edge id=":3_11" function="internal">
        <lane id=":3_11_0" index="0" allow="pedestrian passenger bicycle" speed="3.65" length="2.34" shape="194.40,100.00 194.00,100.80 192.80,101.60"/>
    </edge>
    <edge id=":4_0" function="internal">
        <lane id=":4_0_0" index="0" allow="pedestrian passenger bicycle" speed="5.79" length="12.78" shape="288.59,92.51 290.94,94.91 291.21,97.92 289.62,100.51 286.44,101.60"/>
    </edge>
    <edge id=":4_1" function="internal">
        <lane id=":4_1_0" index="0" allow="pedestrian passenger bicycle" speed="4.62" length="7.45" shape="286.44,98.40 289.03,98.21 290.01,97.64 289.39,96.70 287.16,95.37"/>
    </edge>
    <edge id=":5_0" function="internal">
        <lane id=":5_0_0" index="0" allow="pedestrian passenger bicycle" speed="6.16" length="10.83" shape="98.40,5.18 98.83,2.00 100.14,0.22 102.31,-0.15 105.35,0.88"/>
    </edge>
    <edge id=":5_1" function="internal">
        <lane id=":5_1_0" index="0" allow="pedestrian passenger bicycle" speed="3.95" length="3.61" shape="103.92,3.75 102.90,3.40 102.18,3.53 101.74,4.12 101.60,5.18"/>
    </edge>
    <edge id=":6_0" function="internal">
        <lane id=":6_0_0" index="0" allow="pedestrian passenger bicycle" speed="6.08" length="7.74" shape="103.20,201.60 101.10,201.30 99.60,200.40 98.70,198.90 98.40,196.80"/>
    </edge>
    <edge id=":6_1" function="internal">
        <lane id=":6_1_0" index="0" allow="pedestrian passenger bicycle" speed="3.90" length="2.58" shape="101.60,196.80 101.70,197.50 102.00,198.00 102.50,198.30 103.20,198.40"/>
    </edge>
    <edge id=":7_0" function="internal">
        <lane id=":7_0_0" index="0" allow="pedestrian passenger bicycle" speed="6.08" length="7.74" shape="201.60,196.80 201.30,198.90 200.40,200.40 198.90,201.30 196.80,201.60"/>
    </edge>
    <edge id=":7_1" function="internal">
        <lane id=":7_1_0" index="0" allow="pedestrian passenger bicycle" speed="3.90" length="2.58" shape="196.80,198.40 197.50,198.30 198.00,198.00 198.30,197.50 198.40,196.80"/>
    </edge>

    <edge id="-1" from="2" to="1" priority="-1" type="1">
        <lane id="-1_0" index="0" allow="pedestrian passenger bicycle" speed="13.89" length="92.80" shape="92.80,101.60 0.00,101.60"/>
    </edge>
    <edge id="-2" from="3" to="2" priority="-1" type="1">
        <lane id="-2_0" index="0" allow="pedestrian passenger bicycle" speed="13.89" length="85.60" shape="192.80,101.60 107.20,101.60"/>
    </edge>
    <edge id="-3" from="4" to="3" priority="-1" type="1">
        <lane id="-3_0" index="0" allow="pedestrian passenger bicycle" speed="13.89" length="79.24" shape="286.44,101.60 207.20,101.60"/>
    </edge>
    <edge id="-5" from="5" to="4" priority="-1" type="1">
        <lane id="-5_0" index="0" allow="pedestrian passenger bicycle" speed="13.89" length="204.87" shape="105.35,0.88 288.59,92.51"/>
    </edge>
    <edge id="-6" from="6" to="2" priority="-1" type="1">
        <lane id="-6_0" index="0" allow="pedestrian passenger bicycle" speed="13.89" length="89.60" shape="98.40,196.80 98.40,107.20"/>
    </edge>
    <edge id="-7" from="7" to="6" priority="-1" type="1">
        <lane id="-7_0" index="0" allow="pedestrian passenger bicycle" speed="13.89" length="93.60" shape="196.80,201.60 103.20,201.60"/>
    </edge>
    <edge id="-8" from="7" to="3" priority="-1" type="1">
        <lane id="-8_0" index="0" allow="pedestrian passenger bicycle" speed="13.89" length="89.60" shape="198.40,196.80 198.40,107.20"/>
    </edge>
    <edge id="-9" from="5" to="2" priority="-1" type="1">
        <lane id="-9_0" index="0" allow="pedestrian passenger bicycle" speed="13.89" length="87.62" shape="101.60,5.18 101.60,92.80"/>
    </edge>
    <edge id="1" from="1" to="2" priority="-1" type="1">
        <lane id="1_0" index="0" allow="pedestrian passenger bicycle" speed="13.89" length="92.80" shape="0.00,98.40 92.80,98.40"/>
    </edge>
    <edge id="2" from="2" to="3" priority="-1" type="1">
        <lane id="2_0" index="0" allow="pedestrian passenger bicycle" speed="13.89" length="85.60" shape="107.20,98.40 192.80,98.40"/>
    </edge>
    <edge id="3" from="3" to="4" priority="-1" type="1">
        <lane id="3_0" index="0" allow="pedestrian passenger bicycle" speed="13.89" length="79.24" shape="207.20,98.40 286.44,98.40"/>
    </edge>
    <edge id="5" from="4" to="5" priority="-1" type="1">
        <lane id="5_0" index="0" allow="pedestrian passenger bicycle" speed="13.89" length="204.87" shape="287.16,95.37 103.92,3.75"/>
    </edge>
    <edge id="6" from="2" to="6" priority="-1" type="1">
        <lane id="6_0" index="0" allow="pedestrian passenger bicycle" speed="13.89" length="89.60" shape="101.60,107.20 101.60,196.80"/>
    </edge>
    <edge id="7" from="6" to="7" priority="-1" type="1">
        <lane id="7_0" index="0" allow="pedestrian passenger bicycle" speed="13.89" length="93.60" shape="103.20,198.40 196.80,198.40"/>
    </edge>
    <edge id="8" from="3" to="7" priority="-1" type="1">
        <lane id="8_0" index="0" allow="pedestrian passenger bicycle" speed="13.89" length="89.60" shape="201.60,107.20 201.60,196.80"/>
    </edge>
    <edge id="9" from="2" to="5" priority="-1" type="1">
        <lane id="9_0" index="0" allow="pedestrian passenger bicycle" speed="13.89" length="87.62" shape="98.40,92.80 98.40,5.18"/>
    </edge>

    <junction id="1" type="priority" x="0.00" y="100.00" incLanes="-1_0" intLanes=":1_0_0" shape="0.00,100.00 0.00,103.20 0.00,100.00">
        <request index="0" response="0" foes="0" cont="0"/>
    </junction>
    <junction id="2" type="priority" x="100.00" y="100.00" incLanes="-6_0 -2_0 -9_0 1_0" intLanes=":2_0_0 :2_1_0 :2_16_0 :2_17_0 :2_4_0 :2_5_0 :2_6_0 :2_7_0 :2_8_0 :2_9_0 :2_18_0 :2_19_0 :2_12_0 :2_13_0 :2_14_0 :2_15_0" shape="96.80,107.20 103.20,107.20 103.64,104.98 104.20,104.20 104.98,103.64 105.98,103.31 107.20,103.20 107.20,96.80 104.98,96.36 104.20,95.80 103.64,95.02 103.31,94.02 103.20,92.80 96.80,92.80 96.36,95.02 95.80,95.80 95.02,96.36 94.02,96.69 92.80,96.80 92.80,103.20 95.02,103.64 95.80,104.20 96.36,104.98 96.69,105.98">
        <request index="0"  response="0000000000000000" foes="1000010000100000" cont="0"/>
        <request index="1"  response="0000000000000000" foes="0111110001100000" cont="0"/>
        <request index="2"  response="0000001100000000" foes="0110001111100000" cont="1"/>
        <request index="3"  response="0100001000010000" foes="0100001000010000" cont="1"/>
        <request index="4"  response="0000001000000000" foes="0100001000001000" cont="0"/>
        <request index="5"  response="0000011000000111" foes="1100011000000111" cont="0"/>
        <request index="6"  response="0011011000000110" foes="0011111000000110" cont="0"/>
        <request index="7"  response="0010000100000100" foes="0010000100000100" cont="0"/>
        <request index="8"  response="0000000000000000" foes="0010000010000100" cont="0"/>
        <request index="9"  response="0000000000000000" foes="0110000001111100" cont="0"/>
        <request index="10" response="0000000000000011" foes="1110000001100011" cont="1"/>
        <request index="11" response="0001000001000010" foes="0001000001000010" cont="1"/>
        <request index="12" response="0000000000000010" foes="0000100001000010" cont="0"/>
        <request index="13" response="0000011100000110" foes="0000011111000110" cont="0"/>
        <request index="14" response="0000011000110110" foes="0000011000111110" cont="0"/>
        <request index="15" response="0000010000100001" foes="0000010000100001" cont="0"/>
    </junction>
    <junction id="3" type="priority" x="200.00" y="100.00" incLanes="-8_0 -3_0 2_0" intLanes=":3_0_0 :3_1_0 :3_2_0 :3_3_0 :3_4_0 :3_9_0 :3_6_0 :3_10_0 :3_11_0" shape="196.80,107.20 203.20,107.20 203.64,104.98 204.20,104.20 204.98,103.64 205.98,103.31 207.20,103.20 207.20,96.80 192.80,96.80 192.80,103.20 195.02,103.64 195.80,104.20 196.36,104.98 196.69,105.98">
        <request index="0" response="000010000" foes="100010000" cont="0"/>
        <request index="1" response="011010000" foes="011110000" cont="0"/>
        <request index="2" response="010001000" foes="010001000" cont="0"/>
        <request index="3" response="000000000" foes="010000100" cont="0"/>
        <request index="4" response="000000000" foes="110000011" cont="0"/>
        <request index="5" response="001000010" foes="001000010" cont="1"/>
        <request index="6" response="000000000" foes="000100010" cont="0"/>
        <request index="7" response="000011000" foes="000011110" cont="1"/>
        <request index="8" response="000010001" foes="000010001" cont="1"/>
    </junction>
    <junction id="4" type="priority" x="300.00" y="100.00" incLanes="-5_0 3_0" intLanes=":4_0_0 :4_1_0" shape="289.31,91.08 286.44,96.80 286.44,103.20 294.05,102.86 298.81,101.85 300.72,100.17 299.77,97.81 295.96,94.78">
        <request index="0" response="00" foes="00" cont="0"/>
        <request index="1" response="00" foes="00" cont="0"/>
    </junction>
    <junction id="5" type="priority" x="100.00" y="0.00" incLanes="9_0 5_0" intLanes=":5_0_0 :5_1_0" shape="96.80,5.18 103.20,5.18 106.06,-0.55 103.23,-1.67 100.92,-1.97 99.12,-1.43 97.83,-0.06 97.06,2.14">
        <request index="0" response="00" foes="00" cont="0"/>
        <request index="1" response="00" foes="00" cont="0"/>
    </junction>
    <junction id="6" type="priority" x="100.00" y="200.00" incLanes="-7_0 6_0" intLanes=":6_0_0 :6_1_0" shape="103.20,203.20 103.20,196.80 96.80,196.80 97.51,200.36 98.40,201.60 99.64,202.49 101.24,203.02">
        <request index="0" response="00" foes="00" cont="0"/>
        <request index="1" response="00" foes="00" cont="0"/>
    </junction>
    <junction id="7" type="priority" x="200.00" y="200.00" incLanes="8_0 7_0" intLanes=":7_0_0 :7_1_0" shape="203.20,196.80 196.80,196.80 196.80,203.20 200.36,202.49 201.60,201.60 202.49,200.36 203.02,198.76">
        <request index="0" response="00" foes="00" cont="0"/>
        <request index="1" response="00" foes="00" cont="0"/>
    </junction>

    <junction id=":2_16_0" type="internal" x="100.00" y="101.60" incLanes=":2_2_0 -9_0" intLanes=":2_5_0 :2_6_0 :2_7_0 :2_8_0 :2_9_0 :2_13_0 :2_14_0"/>
    <junction id=":2_17_0" type="internal" x="100.00" y="105.60" incLanes=":2_3_0 -2_0 -9_0 1_0" intLanes=":2_4_0 :2_9_0 :2_14_0"/>
    <junction id=":2_18_0" type="internal" x="100.00" y="98.40" incLanes=":2_10_0 -6_0" intLanes=":2_0_0 :2_1_0 :2_5_0 :2_6_0 :2_13_0 :2_14_0 :2_15_0"/>
    <junction id=":2_19_0" type="internal" x="100.00" y="94.40" incLanes=":2_11_0 -2_0 -6_0 1_0" intLanes=":2_1_0 :2_6_0 :2_12_0"/>
    <junction id=":3_9_0" type="internal" x="205.60" y="100.00" incLanes=":3_5_0 -8_0 2_0" intLanes=":3_1_0 :3_6_0"/>
    <junction id=":3_10_0" type="internal" x="198.40" y="100.00" incLanes=":3_7_0 -3_0" intLanes=":3_1_0 :3_2_0 :3_3_0 :3_4_0"/>
    <junction id=":3_11_0" type="internal" x="194.40" y="100.00" incLanes=":3_8_0 -3_0 -8_0" intLanes=":3_0_0 :3_4_0"/>

    <connection from="-1" to="1" fromLane="0" toLane="0" via=":1_0_0" dir="t" state="M"/>
    <connection from="-2" to="6" fromLane="0" toLane="0" via=":2_4_0" dir="r" state="m"/>
    <connection from="-2" to="-1" fromLane="0" toLane="0" via=":2_5_0" dir="s" state="m"/>
    <connection from="-2" to="9" fromLane="0" toLane="0" via=":2_6_0" dir="l" state="m"/>
    <connection from="-2" to="2" fromLane="0" toLane="0" via=":2_7_0" dir="t" state="m"/>
    <connection from="-3" to="8" fromLane="0" toLane="0" via=":3_3_0" dir="r" state="M"/>
    <connection from="-3" to="-2" fromLane="0" toLane="0" via=":3_4_0" dir="s" state="M"/>
    <connection from="-3" to="3" fromLane="0" toLane="0" via=":3_5_0" dir="t" state="m"/>
    <connection from="-5" to="-3" fromLane="0" toLane="0" via=":4_0_0" dir="l" state="M"/>
    <connection from="-6" to="-1" fromLane="0" toLane="0" via=":2_0_0" dir="r" state="M"/>
    <connection from="-6" to="9" fromLane="0" toLane="0" via=":2_1_0" dir="s" state="M"/>
    <connection from="-6" to="2" fromLane="0" toLane="0" via=":2_2_0" dir="l" state="m"/>
    <connection from="-6" to="6" fromLane="0" toLane="0" via=":2_3_0" dir="t" state="m"/>
    <connection from="-7" to="-6" fromLane="0" toLane="0" via=":6_0_0" dir="l" state="M"/>
    <connection from="-8" to="-2" fromLane="0" toLane="0" via=":3_0_0" dir="r" state="m"/>
    <connection from="-8" to="3" fromLane="0" toLane="0" via=":3_1_0" dir="l" state="m"/>
    <connection from="-8" to="8" fromLane="0" toLane="0" via=":3_2_0" dir="t" state="m"/>
    <connection from="-9" to="2" fromLane="0" toLane="0" via=":2_8_0" dir="r" state="M"/>
    <connection from="-9" to="6" fromLane="0" toLane="0" via=":2_9_0" dir="s" state="M"/>
    <connection from="-9" to="-1" fromLane="0" toLane="0" via=":2_10_0" dir="l" state="m"/>
    <connection from="-9" to="9" fromLane="0" toLane="0" via=":2_11_0" dir="t" state="m"/>
    <connection from="1" to="9" fromLane="0" toLane="0" via=":2_12_0" dir="r" state="m"/>
    <connection from="1" to="2" fromLane="0" toLane="0" via=":2_13_0" dir="s" state="m"/>
    <connection from="1" to="6" fromLane="0" toLane="0" via=":2_14_0" dir="l" state="m"/>
    <connection from="1" to="-1" fromLane="0" toLane="0" via=":2_15_0" dir="t" state="m"/>
    <connection from="2" to="3" fromLane="0" toLane="0" via=":3_6_0" dir="s" state="M"/>
    <connection from="2" to="8" fromLane="0" toLane="0" via=":3_7_0" dir="l" state="m"/>
    <connection from="2" to="-2" fromLane="0" toLane="0" via=":3_8_0" dir="t" state="m"/>
    <connection from="3" to="5" fromLane="0" toLane="0" via=":4_1_0" dir="r" state="M"/>
    <connection from="5" to="-9" fromLane="0" toLane="0" via=":5_1_0" dir="r" state="M"/>
    <connection from="6" to="7" fromLane="0" toLane="0" via=":6_1_0" dir="r" state="M"/>
    <connection from="7" to="-8" fromLane="0" toLane="0" via=":7_1_0" dir="r" state="M"/>
    <connection from="8" to="-7" fromLane="0" toLane="0" via=":7_0_0" dir="l" state="M"/>
    <connection from="9" to="-5" fromLane="0" toLane="0" via=":5_0_0" dir="l" state="M"/>

    <connection from=":1_0" to="1" fromLane="0" toLane="0" dir="t" state="M"/>
    <connection from=":2_0" to="-1" fromLane="0" toLane="0" dir="r" state="M"/>
    <connection from=":2_1" to="9" fromLane="0" toLane="0" dir="s" state="M"/>
    <connection from=":2_2" to="2" fromLane="0" toLane="0" via=":2_16_0" dir="l" state="m"/>
    <connection from=":2_16" to="2" fromLane="0" toLane="0" dir="l" state="M"/>
    <connection from=":2_3" to="6" fromLane="0" toLane="0" via=":2_17_0" dir="t" state="m"/>
    <connection from=":2_17" to="6" fromLane="0" toLane="0" dir="t" state="M"/>
    <connection from=":2_4" to="6" fromLane="0" toLane="0" dir="r" state="M"/>
    <connection from=":2_5" to="-1" fromLane="0" toLane="0" dir="s" state="M"/>
    <connection from=":2_6" to="9" fromLane="0" toLane="0" dir="l" state="M"/>
    <connection from=":2_7" to="2" fromLane="0" toLane="0" dir="t" state="M"/>
    <connection from=":2_8" to="2" fromLane="0" toLane="0" dir="r" state="M"/>
    <connection from=":2_9" to="6" fromLane="0" toLane="0" dir="s" state="M"/>
    <connection from=":2_10" to="-1" fromLane="0" toLane="0" via=":2_18_0" dir="l" state="m"/>
    <connection from=":2_18" to="-1" fromLane="0" toLane="0" dir="l" state="M"/>
    <connection from=":2_11" to="9" fromLane="0" toLane="0" via=":2_19_0" dir="t" state="m"/>
    <connection from=":2_19" to="9" fromLane="0" toLane="0" dir="t" state="M"/>
    <connection from=":2_12" to="9" fromLane="0" toLane="0" dir="r" state="M"/>
    <connection from=":2_13" to="2" fromLane="0" toLane="0" dir="s" state="M"/>
    <connection from=":2_14" to="6" fromLane="0" toLane="0" dir="l" state="M"/>
    <connection from=":2_15" to="-1" fromLane="0" toLane="0" dir="t" state="M"/>
    <connection from=":3_0" to="-2" fromLane="0" toLane="0" dir="r" state="M"/>
    <connection from=":3_1" to="3" fromLane="0" toLane="0" dir="l" state="M"/>
    <connection from=":3_2" to="8" fromLane="0" toLane="0" dir="t" state="M"/>
    <connection from=":3_3" to="8" fromLane="0" toLane="0" dir="r" state="M"/>
    <connection from=":3_4" to="-2" fromLane="0" toLane="0" dir="s" state="M"/>
    <connection from=":3_5" to="3" fromLane="0" toLane="0" via=":3_9_0" dir="t" state="m"/>
    <connection from=":3_9" to="3" fromLane="0" toLane="0" dir="t" state="M"/>
    <connection from=":3_6" to="3" fromLane="0" toLane="0" dir="s" state="M"/>
    <connection from=":3_7" to="8" fromLane="0" toLane="0" via=":3_10_0" dir="l" state="m"/>
    <connection from=":3_10" to="8" fromLane="0" toLane="0" dir="l" state="M"/>
    <connection from=":3_8" to="-2" fromLane="0" toLane="0" via=":3_11_0" dir="t" state="m"/>
    <connection from=":3_11" to="-2" fromLane="0" toLane="0" dir="t" state="M"/>
    <connection from=":4_0" to="-3" fromLane="0" toLane="0" dir="l" state="M"/>
    <connection from=":4_1" to="5" fromLane="0" toLane="0" dir="r" state="M"/>
    <connection from=":5_0" to="-5" fromLane="0" toLane="0" dir="l" state="M"/>
    <connection from=":5_1" to="-9" fromLane="0" toLane="0" dir="r" state="M"/>
    <connection from=":6_0" to="-6" fromLane="0" toLane="0" dir="l" state="M"/>
    <connection from=":6_1" to="7" fromLane="0" toLane="0" dir="r" state="M"/>
    <connection from=":7_0" to="-7" fromLane="0" toLane="0" dir="l" state="M"/>
    <connection from=":7_1" to="-8" fromLane="0" toLane="0" dir="r" state="M"/>

</net>
