<?xml version="1.0" encoding="UTF-8"?>

<additional xmlns:xsi="http://www.w3.org/2001/XMLSchema-instance" xsi:noNamespaceSchemaLocation="http://sumo.dlr.de/xsd/additional_file.xsd">
    <e1Detector id="e1Detector_0" lane="-1_0" pos="-1" freq="1.00" file="out.xml"/>
	<e1Detector id="e1Detector_1" lane="3_0" pos="-1" freq="1.00" file="out.xml"/>
    <e1Detector id="e1Detector_2" lane="-5_0" pos="-1" freq="1.00" file="out.xml"/>
</additional>
